6mob_ligand
     RDKit          3D

 54 57  0  0  0  0  0  0  0  0999 V2000
   16.5254  -19.1071    3.9350 C   0  0  0  0  0  0  0  0  0  0  0  0
   16.1538  -20.2394    3.1841 C   0  0  0  0  0  0  0  0  0  0  0  0
   14.8724  -20.7602    3.3238 C   0  0  0  0  0  0  0  0  0  0  0  0
   13.9252  -20.2250    4.1855 C   0  0  0  0  0  0  0  0  0  0  0  0
   15.5775  -18.5722    4.8149 C   0  0  0  0  0  0  0  0  0  0  0  0
   14.2760  -19.1081    4.9177 C   0  0  0  0  0  0  0  0  0  0  0  0
   17.1251  -20.8738    2.2565 C   0  0  0  0  0  0  0  0  0  0  0  0
   16.9622  -20.7299    0.8885 C   0  0  0  0  0  0  0  0  0  0  0  0
   17.9021  -21.3629    0.0325 C   0  0  0  0  0  0  0  0  0  0  0  0
   18.9874  -22.0692    0.5294 C   0  0  0  0  0  0  0  0  0  0  0  0
   18.2891  -21.6211    2.7555 C   0  0  0  0  0  0  0  0  0  0  0  0
   19.8974  -22.6763   -0.3840 C   0  0  0  0  0  0  0  0  0  0  0  0
   19.6722  -22.5293   -1.7687 C   0  0  0  0  0  0  0  0  0  0  0  0
   17.7223  -21.2264   -1.3767 C   0  0  0  0  0  0  0  0  0  0  0  0
   20.3609  -22.8933    2.4352 C   0  0  0  0  0  0  0  0  0  0  0  0
   18.4582  -21.7481    4.0117 O   0  0  0  0  0  0  0  0  0  0  0  0
   19.1783  -22.1917    1.8833 N   0  0  0  0  0  0  0  0  0  0  0  0
   20.1382  -24.0431    3.3984 C   0  0  0  0  0  0  0  0  0  0  0  0
   18.6281  -21.8195   -2.2100 N   0  0  0  0  0  0  0  0  0  0  0  0
   20.5017  -23.0624   -2.7052 N   0  0  0  0  0  0  0  0  0  0  0  0
   21.5780  -24.0096   -2.3710 C   0  0  0  0  0  0  0  0  0  0  0  0
   14.3480  -22.1540    2.3820 Cl  0  0  0  0  0  0  0  0  0  0  0  0
   13.3669  -18.5071    5.7558 F   0  0  0  0  0  0  0  0  0  0  0  0
   15.7864  -17.3829    5.5159 N   0  0  0  0  0  0  0  0  0  0  0  0
   16.9485  -16.6773    5.6149 C   0  0  0  0  0  0  0  0  0  0  0  0
   18.0014  -17.0806    5.0817 O   0  0  0  0  0  0  0  0  0  0  0  0
   16.8681  -15.5514    6.3616 N   0  0  0  0  0  0  0  0  0  0  0  0
   16.6840  -14.2245    5.9223 C   0  0  0  0  0  0  0  0  0  0  0  0
   15.4555  -13.9343    5.3075 C   0  0  0  0  0  0  0  0  0  0  0  0
   15.1700  -12.6182    4.8586 C   0  0  0  0  0  0  0  0  0  0  0  0
   16.1033  -11.5745    5.0328 C   0  0  0  0  0  0  0  0  0  0  0  0
   17.3339  -11.8775    5.6515 C   0  0  0  0  0  0  0  0  0  0  0  0
   17.6301  -13.1749    6.1078 C   0  0  0  0  0  0  0  0  0  0  0  0
   17.5104  -18.6657    3.8349 H   0  0  0  0  0  0  0  0  0  0  0  0
   12.9412  -20.6697    4.2807 H   0  0  0  0  0  0  0  0  0  0  0  0
   16.1368  -20.1479    0.4810 H   0  0  0  0  0  0  0  0  0  0  0  0
   20.7482  -23.2414   -0.0208 H   0  0  0  0  0  0  0  0  0  0  0  0
   16.8859  -20.6649   -1.7769 H   0  0  0  0  0  0  0  0  0  0  0  0
   20.9672  -22.1417    2.9620 H   0  0  0  0  0  0  0  0  0  0  0  0
   20.9298  -23.2908    1.5817 H   0  0  0  0  0  0  0  0  0  0  0  0
   20.9723  -24.0886    4.1141 H   0  0  0  0  0  0  0  0  0  0  0  0
   20.0854  -24.9872    2.8364 H   0  0  0  0  0  0  0  0  0  0  0  0
   19.1956  -23.8875    3.9434 H   0  0  0  0  0  0  0  0  0  0  0  0
   20.3713  -22.7919   -3.6904 H   0  0  0  0  0  0  0  0  0  0  0  0
   22.1515  -24.2480   -3.2788 H   0  0  0  0  0  0  0  0  0  0  0  0
   21.1406  -24.9319   -1.9609 H   0  0  0  0  0  0  0  0  0  0  0  0
   22.2461  -23.5567   -1.6237 H   0  0  0  0  0  0  0  0  0  0  0  0
   14.9957  -17.0069    5.9989 H   0  0  0  0  0  0  0  0  0  0  0  0
   16.9497  -15.6765    7.3503 H   0  0  0  0  0  0  0  0  0  0  0  0
   14.7206  -14.7200    5.1749 H   0  0  0  0  0  0  0  0  0  0  0  0
   14.2218  -12.4123    4.3753 H   0  0  0  0  0  0  0  0  0  0  0  0
   15.8806  -10.5672    4.7000 H   0  0  0  0  0  0  0  0  0  0  0  0
   18.0695  -11.0915    5.7787 H   0  0  0  0  0  0  0  0  0  0  0  0
   18.5752  -13.3757    6.5991 H   0  0  0  0  0  0  0  0  0  0  0  0
  1  2  2  0
  1  5  1  0
  2  3  1  0
  2  7  1  0
  3  4  2  0
  3 22  1  0
  4  6  1  0
  5  6  2  0
  5 24  1  0
  6 23  1  0
  7  8  2  0
  7 11  1  0
  8  9  1  0
  9 10  2  0
  9 14  1  0
 10 12  1  0
 10 17  1  0
 11 16  2  0
 11 17  1  0
 12 13  2  0
 13 19  1  0
 13 20  1  0
 14 19  2  0
 17 15  1  0
 15 18  1  0
 20 21  1  0
 24 25  1  0
 25 26  2  0
 25 27  1  0
 27 28  1  0
 28 29  2  0
 28 33  1  0
 29 30  1  0
 30 31  2  0
 31 32  1  0
 32 33  2  0
  1 34  1  0
  4 35  1  0
  8 36  1  0
 12 37  1  0
 14 38  1  0
 15 39  1  0
 15 40  1  0
 18 41  1  0
 18 42  1  0
 18 43  1  0
 20 44  1  0
 21 45  1  0
 21 46  1  0
 21 47  1  0
 24 48  1  0
 27 49  1  0
 29 50  1  0
 30 51  1  0
 31 52  1  0
 32 53  1  0
 33 54  1  0
M  END
