4wcu_ligand
     RDKit          3D

 55 57  0  0  0  0  0  0  0  0999 V2000
   20.4360   -3.6923   -5.9947 C   0  0  0  0  0  0  0  0  0  0  0  0
   20.4028   -4.5842   -4.8153 C   0  0  0  0  0  0  0  0  0  0  0  0
   19.4085   -4.4131   -3.8579 C   0  0  0  0  0  0  0  0  0  0  0  0
   18.4366   -2.6073   -5.0328 C   0  0  0  0  0  0  0  0  0  0  0  0
   19.3781   -2.6604   -6.0603 C   0  0  0  0  0  0  0  0  0  0  0  0
   23.3503    3.0485   -6.6712 O   0  0  0  0  0  0  0  0  0  0  0  0
   23.3967    1.8356   -6.7862 C   0  0  0  0  0  0  0  0  0  0  0  0
   23.2073    0.9935   -5.7663 N   0  0  0  0  0  0  0  0  0  0  0  0
   22.7237    1.4481   -4.4659 C   0  0  0  0  0  0  0  0  0  0  0  0
   23.7717    1.3011   -3.3707 C   0  0  0  0  0  0  0  0  0  0  0  0
   25.0369    1.8725   -3.5479 C   0  0  0  0  0  0  0  0  0  0  0  0
   26.0215    1.7409   -2.5683 C   0  0  0  0  0  0  0  0  0  0  0  0
   25.7385    1.0443   -1.3948 C   0  0  0  0  0  0  0  0  0  0  0  0
   24.4790    0.4718   -1.2015 C   0  0  0  0  0  0  0  0  0  0  0  0
   23.4984    0.6017   -2.1890 C   0  0  0  0  0  0  0  0  0  0  0  0
   23.6909    1.2620   -8.1539 C   0  0  0  0  0  0  0  0  0  0  0  0
   22.9419    0.0838   -8.4496 O   0  0  0  0  0  0  0  0  0  0  0  0
   23.4932   -1.0324   -9.0385 C   0  0  0  0  0  0  0  0  0  0  0  0
   24.4343   -0.9528  -10.1989 C   0  0  0  0  0  0  0  0  0  0  0  0
   24.8012    0.2659  -10.7279 O   0  0  0  0  0  0  0  0  0  0  0  0
   24.2389    0.7400  -11.9519 C   0  0  0  0  0  0  0  0  0  0  0  0
   24.9624   -2.2459  -10.7456 C   0  0  0  0  0  0  0  0  0  0  0  0
   25.8354   -2.2447  -11.7991 O   0  0  0  0  0  0  0  0  0  0  0  0
   26.5140   -3.4233  -12.2560 C   0  0  0  0  0  0  0  0  0  0  0  0
   24.5707   -3.4641  -10.1652 C   0  0  0  0  0  0  0  0  0  0  0  0
   23.6882   -3.5322   -9.0858 C   0  0  0  0  0  0  0  0  0  0  0  0
   23.1409   -2.3852   -8.5136 C   0  0  0  0  0  0  0  0  0  0  0  0
   22.1907   -2.4970   -7.3605 C   0  0  0  0  0  0  0  0  0  0  0  0
   21.9680   -1.4941   -6.6946 O   0  0  0  0  0  0  0  0  0  0  0  0
   21.5020   -3.8275   -7.0673 C   0  0  0  0  0  0  0  0  0  0  0  0
   19.3069   -1.5210   -7.4417 Cl  0  0  0  0  0  0  0  0  0  0  0  0
   18.4729   -3.4512   -3.9827 N   0  0  0  0  0  0  0  0  0  0  0  0
   21.6233   -5.8665   -4.6343 Cl  0  0  0  0  0  0  0  0  0  0  0  0
   19.3855   -5.0706   -2.9888 H   0  0  0  0  0  0  0  0  0  0  0  0
   17.6457   -1.8588   -5.0806 H   0  0  0  0  0  0  0  0  0  0  0  0
   23.4067    0.0021   -5.9004 H   0  0  0  0  0  0  0  0  0  0  0  0
   21.8642    0.8355   -4.1936 H   0  0  0  0  0  0  0  0  0  0  0  0
   22.4721    2.5051   -4.5512 H   0  0  0  0  0  0  0  0  0  0  0  0
   25.2553    2.4262   -4.4610 H   0  0  0  0  0  0  0  0  0  0  0  0
   27.0072    2.1808   -2.7199 H   0  0  0  0  0  0  0  0  0  0  0  0
   26.5034    0.9457   -0.6245 H   0  0  0  0  0  0  0  0  0  0  0  0
   24.2616   -0.0744   -0.2835 H   0  0  0  0  0  0  0  0  0  0  0  0
   22.5151    0.1560   -2.0382 H   0  0  0  0  0  0  0  0  0  0  0  0
   24.7470    0.9933   -8.1764 H   0  0  0  0  0  0  0  0  0  0  0  0
   23.4190    2.0170   -8.8915 H   0  0  0  0  0  0  0  0  0  0  0  0
   24.2763   -0.0531  -12.6986 H   0  0  0  0  0  0  0  0  0  0  0  0
   23.2029    1.0345  -11.7842 H   0  0  0  0  0  0  0  0  0  0  0  0
   24.8099    1.5993  -12.3037 H   0  0  0  0  0  0  0  0  0  0  0  0
   26.9558   -3.9399  -11.4039 H   0  0  0  0  0  0  0  0  0  0  0  0
   25.8013   -4.0819  -12.7523 H   0  0  0  0  0  0  0  0  0  0  0  0
   27.2987   -3.1402  -12.9576 H   0  0  0  0  0  0  0  0  0  0  0  0
   24.9716   -4.3918  -10.5735 H   0  0  0  0  0  0  0  0  0  0  0  0
   23.4202   -4.5076   -8.6799 H   0  0  0  0  0  0  0  0  0  0  0  0
   21.0219   -4.1718   -7.9832 H   0  0  0  0  0  0  0  0  0  0  0  0
   22.2556   -4.5303   -6.7119 H   0  0  0  0  0  0  0  0  0  0  0  0
  1  2  2  0
  1  5  1  0
 30  1  1  0
  2  3  1  0
  2 33  1  0
  3 32  2  0
  5  4  2  0
  4 32  1  0
  5 31  1  0
  7  6  2  0
  7  8  1  0
 16  7  1  0
  8  9  1  0
  9 10  1  0
 10 11  2  0
 10 15  1  0
 11 12  1  0
 12 13  2  0
 14 13  1  0
 15 14  2  0
 17 16  1  0
 18 17  1  0
 18 19  2  0
 27 18  1  0
 19 20  1  0
 19 22  1  0
 20 21  1  0
 22 23  1  0
 25 22  2  0
 23 24  1  0
 26 25  1  0
 27 26  2  0
 28 27  1  0
 28 29  2  0
 28 30  1  0
  3 34  1  0
  4 35  1  0
  8 36  1  0
  9 37  1  0
  9 38  1  0
 11 39  1  0
 12 40  1  0
 13 41  1  0
 14 42  1  0
 15 43  1  0
 16 44  1  0
 16 45  1  0
 21 46  1  0
 21 47  1  0
 21 48  1  0
 24 49  1  0
 24 50  1  0
 24 51  1  0
 25 52  1  0
 26 53  1  0
 30 54  1  0
 30 55  1  0
M  END
